<?xml version="1.0" encoding="UTF-8"?>
<edges>
    <edge id="AB" from="A" to="B" numLanes="3" speed="13.89"/>
    <edge id="BA" from="B" to="A" numLanes="3" speed="13.89"/>
    <edge id="BC" from="B" to="C" numLanes="3" speed="13.89"/>
    <edge id="CB" from="C" to="B" numLanes="3" speed="13.89"/>
    <edge id="DB" from="D" to="B" numLanes="2" speed="11.11"/>
    <edge id="BD" from="B" to="D" numLanes="2" speed="11.11"/>
    <edge id="BE" from="B" to="E" numLanes="2" speed="11.11"/>
    <edge id="EB" from="E" to="B" numLanes="2" speed="11.11"/>
</edges>