<?xml version="1.0" encoding="UTF-8"?>

<!-- generated on 2026-03-26T15:07:35.462725+05:30 by Eclipse SUMO netconvert 1.26.0
<netconvertConfiguration xmlns:xsi="http://www.w3.org/2001/XMLSchema-instance" xsi:noNamespaceSchemaLocation="http://sumo.dlr.de/xsd/netconvertConfiguration.xsd">

    <input>
        <node-files value="nodes.nod.xml"/>
        <edge-files value="edges.edg.xml"/>
    </input>

    <output>
        <output-file value="map.net.xml"/>
    </output>

</netconvertConfiguration>
-->

<net version="1.20" junctionCornerDetail="5" limitTurnSpeed="5.50" xmlns:xsi="http://www.w3.org/2001/XMLSchema-instance" xsi:noNamespaceSchemaLocation="http://sumo.dlr.de/xsd/net_file.xsd">

    <location netOffset="0.00,200.00" convBoundary="0.00,0.00,400.00,400.00" origBoundary="0.00,-200.00,400.00,200.00" projParameter="!"/>

    <edge id=":A_0" function="internal">
        <lane id=":A_0_0" index="0" speed="3.65" length="4.67" shape="0.00,201.60 -1.20,200.80 -1.60,200.00 -1.20,199.20 0.00,198.40"/>
    </edge>
    <edge id=":B_0" function="internal">
        <lane id=":B_0_0" index="0" speed="6.51" length="9.03" shape="195.20,213.60 194.85,211.15 193.80,209.40 192.05,208.35 189.60,208.00"/>
    </edge>
    <edge id=":B_1" function="internal">
        <lane id=":B_1_0" index="0" speed="11.11" length="27.20" shape="195.20,213.60 195.20,186.40"/>
        <lane id=":B_1_1" index="1" speed="11.11" length="27.20" shape="198.40,213.60 198.40,186.40"/>
    </edge>
    <edge id=":B_3" function="internal">
        <lane id=":B_3_0" index="0" speed="9.84" length="6.30" shape="198.40,213.60 199.11,207.34"/>
    </edge>
    <edge id=":B_4" function="internal">
        <lane id=":B_4_0" index="0" speed="3.65" length="1.44" shape="198.40,213.60 199.20,212.40"/>
    </edge>
    <edge id=":B_22" function="internal">
        <lane id=":B_22_0" index="0" speed="9.84" length="15.70" shape="199.11,207.34 199.15,206.95 201.40,202.20 205.15,199.35 210.40,198.40"/>
    </edge>
    <edge id=":B_23" function="internal">
        <lane id=":B_23_0" index="0" speed="3.65" length="3.23" shape="199.20,212.40 200.00,212.00 200.80,212.40 201.60,213.60"/>
    </edge>
    <edge id=":B_5" function="internal">
        <lane id=":B_5_0" index="0" speed="6.51" length="9.03" shape="210.40,208.00 207.95,208.35 206.20,209.40 205.15,211.15 204.80,213.60"/>
    </edge>
    <edge id=":B_6" function="internal">
        <lane id=":B_6_0" index="0" speed="13.89" length="20.80" shape="210.40,208.00 189.60,208.00"/>
        <lane id=":B_6_1" index="1" speed="13.89" length="20.80" shape="210.40,204.80 189.60,204.80"/>
        <lane id=":B_6_2" index="2" speed="13.89" length="20.80" shape="210.40,201.60 189.60,201.60"/>
    </edge>
    <edge id=":B_9" function="internal">
        <lane id=":B_9_0" index="0" speed="9.84" length="4.01" shape="210.40,201.60 206.45,200.89"/>
    </edge>
    <edge id=":B_10" function="internal">
        <lane id=":B_10_0" index="0" speed="3.65" length="1.44" shape="210.40,201.60 209.20,200.80"/>
    </edge>
    <edge id=":B_24" function="internal">
        <lane id=":B_24_0" index="0" speed="9.84" length="17.98" shape="206.45,200.89 205.15,200.65 201.40,197.80 199.15,193.05 198.40,186.40"/>
    </edge>
    <edge id=":B_25" function="internal">
        <lane id=":B_25_0" index="0" speed="3.65" length="3.23" shape="209.20,200.80 208.80,200.00 209.20,199.20 210.40,198.40"/>
    </edge>
    <edge id=":B_11" function="internal">
        <lane id=":B_11_0" index="0" speed="6.51" length="9.03" shape="204.80,186.40 205.15,188.85 206.20,190.60 207.95,191.65 210.40,192.00"/>
    </edge>
    <edge id=":B_12" function="internal">
        <lane id=":B_12_0" index="0" speed="11.11" length="27.20" shape="204.80,186.40 204.80,213.60"/>
        <lane id=":B_12_1" index="1" speed="11.11" length="27.20" shape="201.60,186.40 201.60,213.60"/>
    </edge>
    <edge id=":B_14" function="internal">
        <lane id=":B_14_0" index="0" speed="9.84" length="6.30" shape="201.60,186.40 200.89,192.66"/>
    </edge>
    <edge id=":B_15" function="internal">
        <lane id=":B_15_0" index="0" speed="3.65" length="1.44" shape="201.60,186.40 200.80,187.60"/>
    </edge>
    <edge id=":B_26" function="internal">
        <lane id=":B_26_0" index="0" speed="9.84" length="15.70" shape="200.89,192.66 200.85,193.05 198.60,197.80 194.85,200.65 189.60,201.60"/>
    </edge>
    <edge id=":B_27" function="internal">
        <lane id=":B_27_0" index="0" speed="3.65" length="3.23" shape="200.80,187.60 200.00,188.00 199.20,187.60 198.40,186.40"/>
    </edge>
    <edge id=":B_16" function="internal">
        <lane id=":B_16_0" index="0" speed="6.51" length="9.03" shape="189.60,192.00 192.05,191.65 193.80,190.60 194.85,188.85 195.20,186.40"/>
    </edge>
    <edge id=":B_17" function="internal">
        <lane id=":B_17_0" index="0" speed="13.89" length="20.80" shape="189.60,192.00 210.40,192.00"/>
        <lane id=":B_17_1" index="1" speed="13.89" length="20.80" shape="189.60,195.20 210.40,195.20"/>
        <lane id=":B_17_2" index="2" speed="13.89" length="20.80" shape="189.60,198.40 210.40,198.40"/>
    </edge>
    <edge id=":B_20" function="internal">
        <lane id=":B_20_0" index="0" speed="9.84" length="4.01" shape="189.60,198.40 193.55,199.11"/>
    </edge>
    <edge id=":B_21" function="internal">
        <lane id=":B_21_0" index="0" speed="3.65" length="1.44" shape="189.60,198.40 190.80,199.20"/>
    </edge>
    <edge id=":B_28" function="internal">
        <lane id=":B_28_0" index="0" speed="9.84" length="17.98" shape="193.55,199.11 194.85,199.35 198.60,202.20 200.85,206.95 201.60,213.60"/>
    </edge>
    <edge id=":B_29" function="internal">
        <lane id=":B_29_0" index="0" speed="3.65" length="3.23" shape="190.80,199.20 191.20,200.00 190.80,200.80 189.60,201.60"/>
    </edge>
    <edge id=":C_0" function="internal">
        <lane id=":C_0_0" index="0" speed="3.65" length="4.67" shape="400.00,198.40 401.20,199.20 401.60,200.00 401.20,200.80 400.00,201.60"/>
    </edge>
    <edge id=":D_0" function="internal">
        <lane id=":D_0_0" index="0" speed="3.65" length="4.67" shape="201.60,400.00 200.80,401.20 200.00,401.60 199.20,401.20 198.40,400.00"/>
    </edge>
    <edge id=":E_0" function="internal">
        <lane id=":E_0_0" index="0" speed="3.65" length="4.67" shape="198.40,0.00 199.20,-1.20 200.00,-1.60 200.80,-1.20 201.60,0.00"/>
    </edge>

    <edge id="AB" from="A" to="B" priority="-1">
        <lane id="AB_0" index="0" speed="13.89" length="189.60" shape="0.00,192.00 189.60,192.00"/>
        <lane id="AB_1" index="1" speed="13.89" length="189.60" shape="0.00,195.20 189.60,195.20"/>
        <lane id="AB_2" index="2" speed="13.89" length="189.60" shape="0.00,198.40 189.60,198.40"/>
    </edge>
    <edge id="BA" from="B" to="A" priority="-1">
        <lane id="BA_0" index="0" speed="13.89" length="189.60" shape="189.60,208.00 0.00,208.00"/>
        <lane id="BA_1" index="1" speed="13.89" length="189.60" shape="189.60,204.80 0.00,204.80"/>
        <lane id="BA_2" index="2" speed="13.89" length="189.60" shape="189.60,201.60 0.00,201.60"/>
    </edge>
    <edge id="BC" from="B" to="C" priority="-1">
        <lane id="BC_0" index="0" speed="13.89" length="189.60" shape="210.40,192.00 400.00,192.00"/>
        <lane id="BC_1" index="1" speed="13.89" length="189.60" shape="210.40,195.20 400.00,195.20"/>
        <lane id="BC_2" index="2" speed="13.89" length="189.60" shape="210.40,198.40 400.00,198.40"/>
    </edge>
    <edge id="BD" from="B" to="D" priority="-1">
        <lane id="BD_0" index="0" speed="11.11" length="186.40" shape="204.80,213.60 204.80,400.00"/>
        <lane id="BD_1" index="1" speed="11.11" length="186.40" shape="201.60,213.60 201.60,400.00"/>
    </edge>
    <edge id="BE" from="B" to="E" priority="-1">
        <lane id="BE_0" index="0" speed="11.11" length="186.40" shape="195.20,186.40 195.20,0.00"/>
        <lane id="BE_1" index="1" speed="11.11" length="186.40" shape="198.40,186.40 198.40,0.00"/>
    </edge>
    <edge id="CB" from="C" to="B" priority="-1">
        <lane id="CB_0" index="0" speed="13.89" length="189.60" shape="400.00,208.00 210.40,208.00"/>
        <lane id="CB_1" index="1" speed="13.89" length="189.60" shape="400.00,204.80 210.40,204.80"/>
        <lane id="CB_2" index="2" speed="13.89" length="189.60" shape="400.00,201.60 210.40,201.60"/>
    </edge>
    <edge id="DB" from="D" to="B" priority="-1">
        <lane id="DB_0" index="0" speed="11.11" length="186.40" shape="195.20,400.00 195.20,213.60"/>
        <lane id="DB_1" index="1" speed="11.11" length="186.40" shape="198.40,400.00 198.40,213.60"/>
    </edge>
    <edge id="EB" from="E" to="B" priority="-1">
        <lane id="EB_0" index="0" speed="11.11" length="186.40" shape="204.80,0.00 204.80,186.40"/>
        <lane id="EB_1" index="1" speed="11.11" length="186.40" shape="201.60,0.00 201.60,186.40"/>
    </edge>

    <tlLogic id="A" type="static" programID="0" offset="0">
        <phase duration="82" state="G"/>
        <phase duration="3"  state="y"/>
        <phase duration="5"  state="r"/>
    </tlLogic>
    <tlLogic id="B" type="static" programID="0" offset="0">
        <phase duration="42" state="rrrrrGGGGggrrrrrGGGGgg"/>
        <phase duration="3"  state="rrrrryyyyyyrrrrryyyyyy"/>
        <phase duration="42" state="GGGggrrrrrrGGGggrrrrrr"/>
        <phase duration="3"  state="yyyyyrrrrrryyyyyrrrrrr"/>
    </tlLogic>
    <tlLogic id="C" type="static" programID="0" offset="0">
        <phase duration="82" state="G"/>
        <phase duration="3"  state="y"/>
        <phase duration="5"  state="r"/>
    </tlLogic>
    <tlLogic id="D" type="static" programID="0" offset="0">
        <phase duration="82" state="G"/>
        <phase duration="3"  state="y"/>
        <phase duration="5"  state="r"/>
    </tlLogic>
    <tlLogic id="E" type="static" programID="0" offset="0">
        <phase duration="82" state="G"/>
        <phase duration="3"  state="y"/>
        <phase duration="5"  state="r"/>
    </tlLogic>

    <junction id="A" type="traffic_light" x="0.00" y="200.00" incLanes="BA_0 BA_1 BA_2" intLanes=":A_0_0" shape="0.00,200.00 0.00,209.60 0.00,200.00">
        <request index="0" response="0" foes="0" cont="0"/>
    </junction>
    <junction id="B" type="traffic_light" x="200.00" y="200.00" incLanes="DB_0 DB_1 CB_0 CB_1 CB_2 EB_0 EB_1 AB_0 AB_1 AB_2" intLanes=":B_0_0 :B_1_0 :B_1_1 :B_22_0 :B_23_0 :B_5_0 :B_6_0 :B_6_1 :B_6_2 :B_24_0 :B_25_0 :B_11_0 :B_12_0 :B_12_1 :B_26_0 :B_27_0 :B_16_0 :B_17_0 :B_17_1 :B_17_2 :B_28_0 :B_29_0" shape="193.60,213.60 206.40,213.60 206.84,211.38 207.40,210.60 208.18,210.04 209.18,209.71 210.40,209.60 210.40,190.40 208.18,189.96 207.40,189.40 206.84,188.62 206.51,187.62 206.40,186.40 193.60,186.40 193.16,188.62 192.60,189.40 191.82,189.96 190.82,190.29 189.60,190.40 189.60,209.60 191.82,210.04 192.60,210.60 193.16,211.38 193.49,212.38">
        <request index="0"  response="0000000000000111000000" foes="0000000000000111000000" cont="0"/>
        <request index="1"  response="0111110000001111000000" foes="0111111100001111000000" cont="0"/>
        <request index="2"  response="0111110000001111000000" foes="0111111100001111000000" cont="0"/>
        <request index="3"  response="0111100011001111000000" foes="0111100011011111000000" cont="1"/>
        <request index="4"  response="0100000011000000000000" foes="0100000011000000000000" cont="1"/>
        <request index="5"  response="0000000000000000000000" foes="0000000011000000000000" cont="0"/>
        <request index="6"  response="0000000000000000001000" foes="1100000111000000001111" cont="0"/>
        <request index="7"  response="0000000000000000001000" foes="1100000111000000001111" cont="0"/>
        <request index="8"  response="0000000100000000001000" foes="1100000111000000001111" cont="0"/>
        <request index="9"  response="0011100100000000001000" foes="0011101111000000001110" cont="1"/>
        <request index="10" response="0011100000000000001000" foes="0011100000000000001000" cont="1"/>
        <request index="11" response="0011100000000000000000" foes="0011100000000000000000" cont="0"/>
        <request index="12" response="0111100000001111100000" foes="0111100000001111111000" cont="0"/>
        <request index="13" response="0111100000001111100000" foes="0111100000001111111000" cont="0"/>
        <request index="14" response="0111100000001111000110" foes="1111100000001111000110" cont="1"/>
        <request index="15" response="0000000000001000000110" foes="0000000000001000000110" cont="1"/>
        <request index="16" response="0000000000000000000000" foes="0000000000000000000110" cont="0"/>
        <request index="17" response="0000000100000000000000" foes="0000000111111000001110" cont="0"/>
        <request index="18" response="0000000100000000000000" foes="0000000111111000001110" cont="0"/>
        <request index="19" response="0000000100000000001000" foes="0000000111111000001110" cont="0"/>
        <request index="20" response="0000000100000111001000" foes="0000000111000111011110" cont="1"/>
        <request index="21" response="0000000100000111000000" foes="0000000100000111000000" cont="1"/>
    </junction>
    <junction id="C" type="traffic_light" x="400.00" y="200.00" incLanes="BC_0 BC_1 BC_2" intLanes=":C_0_0" shape="400.00,200.00 400.00,190.40 400.00,200.00">
        <request index="0" response="0" foes="0" cont="0"/>
    </junction>
    <junction id="D" type="traffic_light" x="200.00" y="400.00" incLanes="BD_0 BD_1" intLanes=":D_0_0" shape="200.00,400.00 206.40,400.00 200.00,400.00">
        <request index="0" response="0" foes="0" cont="0"/>
    </junction>
    <junction id="E" type="traffic_light" x="200.00" y="0.00" incLanes="BE_0 BE_1" intLanes=":E_0_0" shape="200.00,0.00 193.60,0.00 200.00,0.00">
        <request index="0" response="0" foes="0" cont="0"/>
    </junction>

    <junction id=":B_22_0" type="internal" x="199.11" y="207.34" incLanes=":B_3_0 EB_0 EB_1" intLanes=":B_6_0 :B_6_1 :B_6_2 :B_9_0 :B_10_0 :B_11_0 :B_12_0 :B_12_1 :B_17_0 :B_17_1 :B_17_2 :B_20_0"/>
    <junction id=":B_23_0" type="internal" x="199.20" y="212.40" incLanes=":B_4_0 AB_2 CB_0 EB_0 EB_1" intLanes=":B_5_0 :B_12_0 :B_12_1 :B_20_0"/>
    <junction id=":B_24_0" type="internal" x="206.45" y="200.89" incLanes=":B_9_0 AB_0 AB_1 AB_2" intLanes=":B_1_0 :B_1_1 :B_3_0 :B_12_0 :B_12_1 :B_14_0 :B_15_0 :B_16_0 :B_17_0 :B_17_1 :B_17_2"/>
    <junction id=":B_25_0" type="internal" x="209.20" y="200.80" incLanes=":B_10_0 AB_0 AB_1 AB_2 DB_1 EB_0" intLanes=":B_3_0 :B_11_0 :B_17_0 :B_17_1 :B_17_2"/>
    <junction id=":B_26_0" type="internal" x="200.89" y="192.66" incLanes=":B_14_0 DB_0 DB_1" intLanes=":B_0_0 :B_1_0 :B_1_1 :B_6_0 :B_6_1 :B_6_2 :B_9_0 :B_17_0 :B_17_1 :B_17_2 :B_20_0 :B_21_0"/>
    <junction id=":B_27_0" type="internal" x="200.80" y="187.60" incLanes=":B_15_0 AB_0 CB_2 DB_0 DB_1" intLanes=":B_1_0 :B_1_1 :B_9_0 :B_16_0"/>
    <junction id=":B_28_0" type="internal" x="193.55" y="199.11" incLanes=":B_20_0 CB_0 CB_1 CB_2" intLanes=":B_1_0 :B_1_1 :B_3_0 :B_4_0 :B_5_0 :B_6_0 :B_6_1 :B_6_2 :B_12_0 :B_12_1 :B_14_0"/>
    <junction id=":B_29_0" type="internal" x="190.80" y="199.20" incLanes=":B_21_0 CB_0 CB_1 CB_2 DB_0 EB_1" intLanes=":B_0_0 :B_6_0 :B_6_1 :B_6_2 :B_14_0"/>

    <connection from="AB" to="BE" fromLane="0" toLane="0" via=":B_16_0" tl="B" linkIndex="16" dir="r" state="O"/>
    <connection from="AB" to="BC" fromLane="0" toLane="0" via=":B_17_0" tl="B" linkIndex="17" dir="s" state="O"/>
    <connection from="AB" to="BC" fromLane="1" toLane="1" via=":B_17_1" tl="B" linkIndex="18" dir="s" state="O"/>
    <connection from="AB" to="BC" fromLane="2" toLane="2" via=":B_17_2" tl="B" linkIndex="19" dir="s" state="O"/>
    <connection from="AB" to="BD" fromLane="2" toLane="1" via=":B_20_0" tl="B" linkIndex="20" dir="l" state="o"/>
    <connection from="AB" to="BA" fromLane="2" toLane="2" via=":B_21_0" tl="B" linkIndex="21" dir="t" state="o"/>
    <connection from="BA" to="AB" fromLane="2" toLane="2" via=":A_0_0" tl="A" linkIndex="0" dir="t" state="O"/>
    <connection from="BC" to="CB" fromLane="2" toLane="2" via=":C_0_0" tl="C" linkIndex="0" dir="t" state="O"/>
    <connection from="BD" to="DB" fromLane="1" toLane="1" via=":D_0_0" tl="D" linkIndex="0" dir="t" state="O"/>
    <connection from="BE" to="EB" fromLane="1" toLane="1" via=":E_0_0" tl="E" linkIndex="0" dir="t" state="O"/>
    <connection from="CB" to="BD" fromLane="0" toLane="0" via=":B_5_0" tl="B" linkIndex="5" dir="r" state="O"/>
    <connection from="CB" to="BA" fromLane="0" toLane="0" via=":B_6_0" tl="B" linkIndex="6" dir="s" state="O"/>
    <connection from="CB" to="BA" fromLane="1" toLane="1" via=":B_6_1" tl="B" linkIndex="7" dir="s" state="O"/>
    <connection from="CB" to="BA" fromLane="2" toLane="2" via=":B_6_2" tl="B" linkIndex="8" dir="s" state="O"/>
    <connection from="CB" to="BE" fromLane="2" toLane="1" via=":B_9_0" tl="B" linkIndex="9" dir="l" state="o"/>
    <connection from="CB" to="BC" fromLane="2" toLane="2" via=":B_10_0" tl="B" linkIndex="10" dir="t" state="o"/>
    <connection from="DB" to="BA" fromLane="0" toLane="0" via=":B_0_0" tl="B" linkIndex="0" dir="r" state="o"/>
    <connection from="DB" to="BE" fromLane="0" toLane="0" via=":B_1_0" tl="B" linkIndex="1" dir="s" state="o"/>
    <connection from="DB" to="BE" fromLane="1" toLane="1" via=":B_1_1" tl="B" linkIndex="2" dir="s" state="o"/>
    <connection from="DB" to="BC" fromLane="1" toLane="2" via=":B_3_0" tl="B" linkIndex="3" dir="l" state="o"/>
    <connection from="DB" to="BD" fromLane="1" toLane="1" via=":B_4_0" tl="B" linkIndex="4" dir="t" state="o"/>
    <connection from="EB" to="BC" fromLane="0" toLane="0" via=":B_11_0" tl="B" linkIndex="11" dir="r" state="o"/>
    <connection from="EB" to="BD" fromLane="0" toLane="0" via=":B_12_0" tl="B" linkIndex="12" dir="s" state="o"/>
    <connection from="EB" to="BD" fromLane="1" toLane="1" via=":B_12_1" tl="B" linkIndex="13" dir="s" state="o"/>
    <connection from="EB" to="BA" fromLane="1" toLane="2" via=":B_14_0" tl="B" linkIndex="14" dir="l" state="o"/>
    <connection from="EB" to="BE" fromLane="1" toLane="1" via=":B_15_0" tl="B" linkIndex="15" dir="t" state="o"/>

    <connection from=":A_0" to="AB" fromLane="0" toLane="2" dir="t" state="M"/>
    <connection from=":B_0" to="BA" fromLane="0" toLane="0" dir="r" state="M"/>
    <connection from=":B_1" to="BE" fromLane="0" toLane="0" dir="s" state="M"/>
    <connection from=":B_1" to="BE" fromLane="1" toLane="1" dir="s" state="M"/>
    <connection from=":B_3" to="BC" fromLane="0" toLane="2" via=":B_22_0" dir="l" state="m"/>
    <connection from=":B_22" to="BC" fromLane="0" toLane="2" dir="l" state="M"/>
    <connection from=":B_4" to="BD" fromLane="0" toLane="1" via=":B_23_0" dir="t" state="m"/>
    <connection from=":B_23" to="BD" fromLane="0" toLane="1" dir="t" state="M"/>
    <connection from=":B_5" to="BD" fromLane="0" toLane="0" dir="r" state="M"/>
    <connection from=":B_6" to="BA" fromLane="0" toLane="0" dir="s" state="M"/>
    <connection from=":B_6" to="BA" fromLane="1" toLane="1" dir="s" state="M"/>
    <connection from=":B_6" to="BA" fromLane="2" toLane="2" dir="s" state="M"/>
    <connection from=":B_9" to="BE" fromLane="0" toLane="1" via=":B_24_0" dir="l" state="m"/>
    <connection from=":B_24" to="BE" fromLane="0" toLane="1" dir="l" state="M"/>
    <connection from=":B_10" to="BC" fromLane="0" toLane="2" via=":B_25_0" dir="t" state="m"/>
    <connection from=":B_25" to="BC" fromLane="0" toLane="2" dir="t" state="M"/>
    <connection from=":B_11" to="BC" fromLane="0" toLane="0" dir="r" state="M"/>
    <connection from=":B_12" to="BD" fromLane="0" toLane="0" dir="s" state="M"/>
    <connection from=":B_12" to="BD" fromLane="1" toLane="1" dir="s" state="M"/>
    <connection from=":B_14" to="BA" fromLane="0" toLane="2" via=":B_26_0" dir="l" state="m"/>
    <connection from=":B_26" to="BA" fromLane="0" toLane="2" dir="l" state="M"/>
    <connection from=":B_15" to="BE" fromLane="0" toLane="1" via=":B_27_0" dir="t" state="m"/>
    <connection from=":B_27" to="BE" fromLane="0" toLane="1" dir="t" state="M"/>
    <connection from=":B_16" to="BE" fromLane="0" toLane="0" dir="r" state="M"/>
    <connection from=":B_17" to="BC" fromLane="0" toLane="0" dir="s" state="M"/>
    <connection from=":B_17" to="BC" fromLane="1" toLane="1" dir="s" state="M"/>
    <connection from=":B_17" to="BC" fromLane="2" toLane="2" dir="s" state="M"/>
    <connection from=":B_20" to="BD" fromLane="0" toLane="1" via=":B_28_0" dir="l" state="m"/>
    <connection from=":B_28" to="BD" fromLane="0" toLane="1" dir="l" state="M"/>
    <connection from=":B_21" to="BA" fromLane="0" toLane="2" via=":B_29_0" dir="t" state="m"/>
    <connection from=":B_29" to="BA" fromLane="0" toLane="2" dir="t" state="M"/>
    <connection from=":C_0" to="CB" fromLane="0" toLane="2" dir="t" state="M"/>
    <connection from=":D_0" to="DB" fromLane="0" toLane="1" dir="t" state="M"/>
    <connection from=":E_0" to="EB" fromLane="0" toLane="1" dir="t" state="M"/>

</net>
