<?xml version="1.0" encoding="UTF-8"?>
<nodes>
    <node id="A" x="0.0"    y="0.0"    type="traffic_light"/>
    <node id="B" x="200.0"  y="0.0"    type="traffic_light"/>
    <node id="C" x="400.0"  y="0.0"    type="traffic_light"/>
    <node id="D" x="200.0"  y="200.0"  type="traffic_light"/>
    <node id="E" x="200.0"  y="-200.0" type="traffic_light"/>
</nodes>